Circuit: * K:\Préampli_G5\Simulation\g5_stompbox.asc

WARNING: Can't resolve .param w=limit(0.01m,set,0.99999)
Questionable use of curly braces in "r1 1 3 {rt*(1-w)}"
    Error: undefined symbol in: "[rt]*(1-w)"
Questionable use of curly braces in "r2 3 2 {rt*(w)}"
    Error: undefined symbol in: "[rt]*(w)"
WARNING: Can't resolve .param w=limit(0.01m,set,0.99999)
WARNING: Can't resolve .param pwrexp=ln(rtap/rt)/(1-tap)
WARNING: Can't resolve .param ratio=exp(pwrexp*(1-w))
Questionable use of curly braces in "r1 1 3 {rt*(1-ratio)}"
    Error: undefined symbol in: "[rt]*(1-ratio)"
Questionable use of curly braces in "r2 3 2 {rt*(ratio)}"
    Error: undefined symbol in: "[rt]*(ratio)"
WARNING: Can't resolve .param w=limit(0.01m,set,0.99999)
WARNING: Can't resolve .param pwrexp=ln(rtap/rt)/(1-tap)
WARNING: Can't resolve .param ratio=exp(pwrexp*(1-w))
Questionable use of curly braces in "r1 1 3 {rt*(1-ratio)}"
    Error: undefined symbol in: "[rt]*(1-ratio)"
Questionable use of curly braces in "r2 3 2 {rt*(ratio)}"
    Error: undefined symbol in: "[rt]*(ratio)"
WARNING: Can't resolve .param w=limit(0.01m,set,0.99999)
WARNING: Can't resolve .param pwrexp=ln(rtap/rt)/(1-tap)
WARNING: Can't resolve .param ratio=exp(pwrexp*(1-w))
Questionable use of curly braces in "r1 1 3 {rt*(1-ratio)}"
    Error: undefined symbol in: "[rt]*(1-ratio)"
Questionable use of curly braces in "r2 3 2 {rt*(ratio)}"
    Error: undefined symbol in: "[rt]*(ratio)"
WARNING: Can't resolve .param w=limit(0.01m,set,0.99999)
WARNING: Can't resolve .param pwrexp=ln(rtap/rt)/(1-tap)
WARNING: Can't resolve .param ratio=exp(pwrexp*(1-w))
Questionable use of curly braces in "r1 1 3 {rt*(1-ratio)}"
    Error: undefined symbol in: "[rt]*(1-ratio)"
Questionable use of curly braces in "r2 3 2 {rt*(ratio)}"
    Error: undefined symbol in: "[rt]*(ratio)"
Error on line 232 : r:u6:1 n007«:1» n010«:3» rt*(1-w))
	 Unable to find definition of model "rt*"
	
	*  Unknown parameter "-w"
Error on line 233 : r:u6:2 n010«:3» n013«:2» rt*(w))
	 Unable to find definition of model "rt*"
Error on line 254 : r:u7:1 n013«:1» n013«:3» rt*(1-ratio))
	 Unable to find definition of model "rt*"
	
	*  Unknown parameter "-ratio"
Error on line 255 : r:u7:2 n013«:3» n022«:2» rt*(ratio))
	 Unable to find definition of model "rt*"
	
	*  Unknown parameter "ratio"
Error on line 254 : r:u9:1 n010«:1» n015«:3» rt*(1-ratio))
	 Unable to find definition of model "rt*"
	
	*  Unknown parameter "-ratio"
Error on line 255 : r:u9:2 n015«:3» 0«:2» rt*(ratio))
	 Unable to find definition of model "rt*"
	
	*  Unknown parameter "ratio"
Error on line 254 : r:u8:1 n017«:1» n017«:3» rt*(1-ratio))
	 Unable to find definition of model "rt*"
	
	*  Unknown parameter "-ratio"
Error on line 255 : r:u8:2 n017«:3» 0«:2» rt*(ratio))
	 Unable to find definition of model "rt*"
	
	*  Unknown parameter "ratio"
Error on line 254 : r:u10:1 n005«:1» output«:3» rt*(1-ratio))
	 Unable to find definition of model "rt*"
	
	*  Unknown parameter "-ratio"
Error on line 255 : r:u10:2 output«:3» 0«:2» rt*(ratio))
	 Unable to find definition of model "rt*"
	
	*  Unknown parameter "ratio"
WARNING: Less than two connections to node NC_01.  This node is used by V4.
WARNING: Less than two connections to node NC_02.  This node is used by V1.
Fatal Error: Missing resistance value for "u10:r2"
